Version 4
SHEET 1 1480 904
WIRE 752 80 528 80
WIRE 880 80 752 80
WIRE 1008 80 880 80
WIRE 1136 80 1008 80
WIRE 1264 80 1136 80
WIRE 288 144 112 144
WIRE 432 144 288 144
WIRE 528 144 528 80
WIRE 528 144 432 144
WIRE 288 240 288 224
WIRE 384 240 288 240
WIRE 112 256 112 224
WIRE 288 256 288 240
WIRE 384 256 384 240
WIRE 832 272 656 272
WIRE 592 288 464 288
WIRE 1264 304 1264 224
WIRE 1264 304 656 304
WIRE 1376 304 1264 304
WIRE 528 320 528 224
WIRE 592 320 528 320
WIRE 752 336 752 224
WIRE 752 336 656 336
WIRE 384 352 384 336
WIRE 464 352 464 288
WIRE 464 352 384 352
WIRE 384 368 384 352
WIRE 832 368 832 272
WIRE 832 368 784 368
WIRE 960 368 832 368
WIRE 720 384 464 384
WIRE 1376 400 1376 304
WIRE 1376 400 784 400
WIRE 528 416 528 320
WIRE 720 416 528 416
WIRE 880 432 880 224
WIRE 880 432 784 432
WIRE 384 464 384 448
WIRE 464 464 464 384
WIRE 464 464 384 464
WIRE 960 464 960 368
WIRE 960 464 912 464
WIRE 1088 464 960 464
WIRE 384 480 384 464
WIRE 848 480 464 480
WIRE 1376 496 1376 400
WIRE 1376 496 912 496
WIRE 528 512 528 416
WIRE 848 512 528 512
WIRE 1008 528 1008 224
WIRE 1008 528 912 528
WIRE 1088 560 1088 464
WIRE 1088 560 1040 560
WIRE 384 576 384 560
WIRE 464 576 464 480
WIRE 464 576 384 576
WIRE 976 576 960 576
WIRE 384 592 384 576
WIRE 960 592 960 576
WIRE 960 592 464 592
WIRE 1376 592 1376 496
WIRE 1376 592 1040 592
WIRE 528 608 528 512
WIRE 976 608 528 608
WIRE 1136 624 1136 224
WIRE 1136 624 1040 624
WIRE 1376 672 1376 592
WIRE 384 688 384 672
WIRE 464 688 464 592
WIRE 464 688 384 688
WIRE 384 704 384 688
WIRE 528 704 528 608
FLAG 112 256 0
FLAG 288 320 0
FLAG 384 784 0
FLAG 528 784 0
FLAG 1376 736 0
FLAG 432 208 0
SYMBOL Misc\\battery 112 128 R0
WINDOW 123 0 0 Left 0
WINDOW 39 0 0 Left 0
SYMATTR InstName V1
SYMATTR Value 12.5
SYMBOL res 272 128 R0
SYMATTR InstName R1
SYMATTR Value 1k
SYMBOL zener 304 320 R180
WINDOW 0 24 64 Left 2
WINDOW 3 24 0 Left 2
SYMATTR InstName D1
SYMATTR Value BZX84B6V2L
SYMBOL res 368 240 R0
SYMATTR InstName R2
SYMATTR Value 6.5k
SYMBOL res 368 352 R0
SYMATTR InstName R3
SYMATTR Value 820
SYMBOL res 368 464 R0
SYMATTR InstName R4
SYMATTR Value 820
SYMBOL res 368 576 R0
SYMATTR InstName R5
SYMATTR Value 820
SYMBOL res 512 688 R0
SYMATTR InstName R6
SYMATTR Value 5k
SYMBOL res 512 128 R0
SYMATTR InstName R7
SYMATTR Value 15k
SYMBOL AutoGenerated\\LM339 624 304 R0
SYMATTR InstName U1
SYMBOL AutoGenerated\\LM339 752 400 R0
SYMATTR InstName U2
SYMBOL AutoGenerated\\LM339 880 496 R0
SYMATTR InstName U3
SYMBOL AutoGenerated\\LM339 1008 592 R0
SYMATTR InstName U4
SYMBOL res 736 128 R0
SYMATTR InstName R8
SYMATTR Value {R_LED}
SYMBOL res 864 128 R0
SYMATTR InstName R9
SYMATTR Value {R_LED}
SYMBOL res 992 128 R0
SYMATTR InstName R10
SYMATTR Value {R_LED}
SYMBOL res 1120 128 R0
SYMATTR InstName R11
SYMATTR Value {R_LED}
SYMBOL LED 736 80 R0
SYMATTR InstName D2
SYMBOL LED 864 80 R0
SYMATTR InstName D3
SYMBOL LED 992 80 R0
SYMATTR InstName D4
SYMBOL LED 1120 80 R0
SYMATTR InstName D5
SYMBOL LED 1248 80 R0
SYMATTR InstName D6
SYMBOL res 1248 128 R0
SYMATTR InstName R12
SYMATTR Value {R_LED}
SYMBOL res 368 688 R0
SYMATTR InstName R13
SYMATTR Value 10k
SYMBOL diode 1360 672 R0
SYMATTR InstName D7
SYMATTR Value 1N4148
SYMBOL cap 416 144 R0
SYMATTR InstName C1
SYMATTR Value 0.1µF
TEXT 78 808 Left 2 !;tran 0 1 0
TEXT 80 848 Left 2 !.dc V1 12 17
TEXT 80 888 Left 2 !.param R_LED=5k
